<configuration>
    <input>
        <net-file value="gangnam.net.xml"/>
        <route-files value="gangnam_17.rou.xml"/>
    </input>
    <time>
        <begin value="0"/>
        <end value="97200"/>
    </time>
</configuration>
